---- qbsp / ericw-tools v0.18.1 ----
Input file: Invasion.map
Output file: Invasion.bsp

---- LoadMapFile ----
*** WARNING 06: No info_player_deathmatch entities in level
         1713 faces
          287 brushes
           18 entities
           17 unique texnames
          265 texinfo

Opened WAD: C:/Users/lukea/Desktop/Quake-Multiplayer-Level/wads/START.WAD
Opened WAD: C:/Users/lukea/Desktop/Quake-Multiplayer-Level/wads/prototype_1_2.wad
Processing hull 0...
---- Brush_LoadEntity ----
          272 brushes
          295 planes
---- CSGFaces ----
         1623 brushfaces
         1846 csgfaces
         1749 mergedfaces
---- SolidBSP ----
         2601 split nodes
         1054 solid leafs
         1449 empty leafs
           99 water leafs
            0 detail leafs
            0 detail illusionary leafs
            0 detail fence leafs
            0 illusionary visblocker leafs
         5449 leaffaces
         5181 nodefaces
---- Portalize ----
         1548 vis leafs
         1548 vis clusters
         4138 vis portals
---- FillOutside ----
          996 outleafs
---- MergeAll ----
         1296 mergefaces
---- SolidBSP ----
          881 split nodes
          507 solid leafs
          290 empty leafs
           85 water leafs
            0 detail leafs
            0 detail illusionary leafs
            0 detail fence leafs
            0 illusionary visblocker leafs
         2520 leaffaces
         2120 nodefaces
---- Portalize ----
          375 vis leafs
          375 vis clusters
          962 vis portals
---- Tjunc ----
         1620 world edges
         6756 edge points
         1920 edges added by tjunctions
            0 faces added by tjunctions
---- MakeFaceEdges ----
---- GrowRegions ----
Processing hull 1...
*** WARNING 19: No entities in empty space -- no filling performed (hull 1)
Processing hull 2...
*** WARNING 19: No entities in empty space -- no filling performed (hull 2)
---- WriteBSPFile ----
Wrote Invasion.bsp
          567 planes            11340
         2884 vertexes          34608
          971 nodes             23304
          197 texinfo            7880
         2246 faces             44920
         5139 clipnodes         41112
          466 leafs             13048
         2646 marksurfaces       5292
        10890 surfedges         43560
         5476 edges             21904
           17 textures         130400
              lightdata             0
              visdata               0
              entdata            1838

0.275 seconds elapsed
Peak memory usage: 19182164 (18.3M)
