---- qbsp / ericw-tools v0.18.1 ----
Input file: Invasion.map
Output file: Invasion.bsp

---- LoadMapFile ----
*** WARNING 06: No info_player_deathmatch entities in level
         3483 faces
          577 brushes
          399 entities
           26 unique texnames
         1147 texinfo

Opened WAD: C:/Users/lukea/Desktop/Quake-Multiplayer-Level/wads/START.WAD
Opened WAD: C:/Users/lukea/Desktop/Quake-Multiplayer-Level/wads/prototype_1_2.wad
Opened WAD: C:/Users/lukea/Desktop/Quake-Multiplayer-Level/wads/id1.wad
Processing hull 0...
---- Brush_LoadEntity ----
          520 brushes
          957 planes
---- CSGFaces ----
         3141 brushfaces
         4855 csgfaces
         4521 mergedfaces
---- SolidBSP ----
         5465 split nodes
         2016 solid leafs
         3131 empty leafs
          319 water leafs
            0 detail leafs
            0 detail illusionary leafs
            0 detail fence leafs
            0 illusionary visblocker leafs
        10883 leaffaces
         9826 nodefaces
---- Portalize ----
         3450 vis leafs
         3450 vis clusters
        10336 vis portals
---- FillOutside ----
*** WARNING 10: Reached occupant at (3340 -3472 328), no filling performed.
Leak file written to Invasion.pts
---- MakeFaceEdges ----
---- GrowRegions ----
Processing hull 1...
Processing hull 2...
---- WriteBSPFile ----
Wrote Invasion.bsp
         2741 planes            54820
        12003 vertexes         144036
         5807 nodes            139368
         1065 texinfo           42600
        10268 faces            205360
         9572 clipnodes         76576
         3793 leafs            106204
        11325 marksurfaces      22650
        40080 surfedges        160320
        27295 edges            109180
           27 textures         236472
              lightdata             0
              visdata               0
              entdata           31470

0.947 seconds elapsed
Peak memory usage: 54629618 (52.1M)
