---- qbsp / ericw-tools v0.18.1 ----
Input file: Invasion.map
Output file: Invasion.bsp

---- LoadMapFile ----
*** WARNING 06: No info_player_deathmatch entities in level
         2108 faces
          350 brushes
          140 entities
           19 unique texnames
          379 texinfo

Opened WAD: C:/Users/lukea/Desktop/Quake-Multiplayer-Level/wads/START.WAD
Opened WAD: C:/Users/lukea/Desktop/Quake-Multiplayer-Level/wads/prototype_1_2.wad
Processing hull 0...
---- Brush_LoadEntity ----
          310 brushes
          384 planes
---- CSGFaces ----
         1868 brushfaces
         2271 csgfaces
         2051 mergedfaces
---- SolidBSP ----
         3011 split nodes
         1230 solid leafs
         1682 empty leafs
          100 water leafs
            0 detail leafs
            0 detail illusionary leafs
            0 detail fence leafs
            0 illusionary visblocker leafs
         6120 leaffaces
         5775 nodefaces
---- Portalize ----
         1782 vis leafs
         1782 vis clusters
         4862 vis portals
---- FillOutside ----
         1105 outleafs
---- MergeAll ----
         1546 mergefaces
---- SolidBSP ----
         1033 split nodes
          572 solid leafs
          376 empty leafs
           86 water leafs
            0 detail leafs
            0 detail illusionary leafs
            0 detail fence leafs
            0 illusionary visblocker leafs
         2906 leaffaces
         2438 nodefaces
---- Portalize ----
          462 vis leafs
          462 vis clusters
         1281 vis portals
---- Tjunc ----
         1954 world edges
         7890 edge points
         2174 edges added by tjunctions
            0 faces added by tjunctions
---- MakeFaceEdges ----
---- GrowRegions ----
Processing hull 1...
Processing hull 2...
---- WriteBSPFile ----
Wrote Invasion.bsp
          705 planes            14100
         3552 vertexes          42624
         1273 nodes             30552
          288 texinfo           11520
         2750 faces             55000
         2791 clipnodes         22328
          703 leafs             19684
         3218 marksurfaces       6436
        13132 surfedges         52528
         6613 edges             26452
           20 textures         134612
              lightdata             0
              visdata               0
              entdata           12323

0.380 seconds elapsed
Peak memory usage: 20324628 (19.4M)
