---- qbsp / ericw-tools v0.18.1 ----
Input file: Invasion.map
Output file: Invasion.bsp

---- LoadMapFile ----
*** WARNING 06: No info_player_deathmatch entities in level
         1521 faces
          255 brushes
            3 entities
           16 unique texnames
          225 texinfo

Opened WAD: C:/Users/lukea/Desktop/Quake-Multiplayer-Level/wads/START.WAD
Opened WAD: C:/Users/lukea/Desktop/Quake-Multiplayer-Level/wads/prototype_1_2.wad
Processing hull 0...
---- Brush_LoadEntity ----
          255 brushes
          291 planes
---- CSGFaces ----
         1521 brushfaces
         1740 csgfaces
         1669 mergedfaces
---- SolidBSP ----
         2426 split nodes
          962 solid leafs
         1360 empty leafs
          105 water leafs
            0 detail leafs
            0 detail illusionary leafs
            0 detail fence leafs
            0 illusionary visblocker leafs
         5324 leaffaces
         5066 nodefaces
---- Portalize ----
         1465 vis leafs
         1465 vis clusters
         3950 vis portals
---- FillOutside ----
          922 outleafs
---- MergeAll ----
         1288 mergefaces
---- SolidBSP ----
          897 split nodes
          501 solid leafs
          305 empty leafs
           92 water leafs
            0 detail leafs
            0 detail illusionary leafs
            0 detail fence leafs
            0 illusionary visblocker leafs
         2573 leaffaces
         2157 nodefaces
---- Portalize ----
          397 vis leafs
          397 vis clusters
         1100 vis portals
---- Tjunc ----
         1621 world edges
         6829 edge points
         1932 edges added by tjunctions
            0 faces added by tjunctions
---- MakeFaceEdges ----
---- GrowRegions ----
Processing hull 1...
*** WARNING 19: No entities in empty space -- no filling performed (hull 1)
Processing hull 2...
*** WARNING 19: No entities in empty space -- no filling performed (hull 2)
---- WriteBSPFile ----
Wrote Invasion.bsp
          545 planes            10900
         2746 vertexes          32952
          897 nodes             21528
          156 texinfo            6240
         2157 faces             43140
         4676 clipnodes         37408
          398 leafs             11144
         2573 marksurfaces       5146
        10546 surfedges         42184
         5278 edges             21112
           16 textures         124916
              lightdata             0
              visdata               0
              entdata             299

0.259 seconds elapsed
Peak memory usage: 18254246 (17.4M)
